
#======================================================================
# CRYSTAL DATA
#----------------------------------------------------------------------
data_VESTA_phase_1

_chemical_name_common                  'Dicalcium dihydroxotridecaoxooctaborat'
_cell_length_a                         6.441000
_cell_length_b                         9.354000
_cell_length_c                         10.011000
_cell_angle_alpha                      116.849998
_cell_angle_beta                       90.550003
_cell_angle_gamma                      99.279999
_cell_volume                           528.753592
_space_group_name_H-M_alt              'P -1'
_space_group_IT_number                 2

loop_
_space_group_symop_operation_xyz
   'x, y, z'
   '-x, -y, -z'

loop_
   _atom_site_label
   _atom_site_occupancy
   _atom_site_fract_x
   _atom_site_fract_y
   _atom_site_fract_z
   _atom_site_adp_type
   _atom_site_B_iso_or_equiv
   _atom_site_type_symbol
   Ca1        1.0     0.51371(6)   0.17624(4)   0.72165(4)  Bani  0.783708 Ca
   Ca2        1.0     0.82658(6)   0.18403(4)   0.16923(4)  Bani  0.744102 Ca
   B1         1.0     0.2544(4)    0.0607(2)    0.2204(2)   Bani  0.678761 B
   B2         1.0     0.2346(4)    0.4680(2)    0.1553(2)   Bani  0.734611 B
   B3         1.0     0.5813(4)    0.4038(2)    0.1246(2)   Bani  0.768273 B
   B4         1.0     0.0574(4)    0.1572(2)    0.8103(2)   Bani  0.715915 B
   B5         1.0     0.2128(4)    0.2626(2)    0.4791(2)   Bani  0.791939 B
   B6         1.0     0.0795(4)    0.3915(2)    0.7404(2)   Bani  0.589096 B
   B7         1.0     0.2720(4)    0.1723(2)    0.0257(2)   Bani  0.665624 B
   B8         1.0     0.5685(4)    0.1939(2)    0.4220(2)   Bani  0.702939 B
   H1         1.0     0.792(4)     0.136(3)     0.499(3)    Biso  1.960000 H
   H2         1.0     0.192(5)     0.629(4)     0.515(3)    Biso  3.970000 H
   O1         1.0     0.1377(2)    0.59730(10)  0.21870(10) Bani  0.801552 O
   O2         1.0     0.4751(2)    0.0843(2)    0.26970(10) Bani  0.765359 O
   O3         1.0     0.6758(2)    0.0970(2)    0.4789(2)   Bani  0.922853 O
   O4         1.0     0.5013(2)    0.2405(2)    0.0475(2)   Bani  1.027568 O
   O5         1.0     0.1989(2)    0.09040(10)  0.86220(10) Bani  0.725821 O
   O6         1.0     0.1600(2)    0.2760(2)    0.7786(2)   Bani  0.870589 O
   O7         1.0     0.7875(2)    0.44610(10)  0.1746(2)   Bani  0.833552 O
   O8         1.0     0.2221(2)    0.04760(10)  0.07170(10) Bani  0.707281 O
   O9         1.0     0.1496(2)    0.30750(10)  0.10440(10) Bani  0.770277 O
   O10        1.0     0.4507(2)    0.5164(2)    0.1509(2)   Bani  0.923260 O
   O11        1.0     0.7184(2)    0.3229(2)    0.4138(2)   Bani  1.082172 O
   O12        1.0     0.0716(2)    0.3355(2)    0.57810(10) Bani  0.994086 O
   O13        1.0     0.4074(2)    0.25410(10)  0.52850(10) Bani  0.889257 O
   O14        1.0     0.1546(2)    0.8992(2)    0.2143(2)   Bani  0.922351 O
   O15        1.0     0.1458(2)    0.1900(2)    0.32840(10) Bani  0.882717 O

loop_
   _atom_site_aniso_label
   _atom_site_aniso_U_11
   _atom_site_aniso_U_22
   _atom_site_aniso_U_33
   _atom_site_aniso_U_12
   _atom_site_aniso_U_13
   _atom_site_aniso_U_23
   Ca1	 0.01039  0.00937  0.01051  0.00317  0.00101  0.00456
   Ca2	 0.01077  0.00760  0.01001  0.00190  0.00152  0.00405
   B1	 0.00697  0.01026  0.00836  0.00139 -0.00013  0.00418
   B2	 0.00836  0.00836  0.01089  0.00190  0.00063  0.00405
   B3	 0.00811  0.00925  0.01153  0.00139  0.00139  0.00456
   B4	 0.00836  0.01013  0.01026  0.00304  0.00177  0.00557
   B5	 0.00874  0.01165  0.00899  0.00329  0.00114  0.00367
   B6	 0.00494  0.00735  0.01026  0.00152  0.00101  0.00405
   B7	 0.00709  0.00735  0.01102  0.00152  0.00063  0.00431
   B8	 0.00735  0.01115  0.00899  0.00165  0.00051  0.00532
   O1	 0.00671  0.00811  0.01469  0.00241  0.00279  0.00405
   O2	 0.00671  0.01254  0.00773  0.00241 -0.00038  0.00266
   O3	 0.00823  0.01469  0.01393  0.00266 -0.00076  0.00798
   O4	 0.00747  0.00785  0.02026  0.00127  0.00038  0.00355
   O5	 0.01039  0.01001  0.00899  0.00418  0.00025  0.00519
   O6	 0.00747  0.01165  0.01836  0.00304  0.00266  0.01026
   O7	 0.00621  0.00836  0.01583  0.00038 -0.00127  0.00481
   O8	 0.01051  0.00798  0.00899  0.00101 -0.00101  0.00469
   O9	 0.00773  0.00709  0.01431  0.00241  0.00266  0.00443
   O10	 0.00697  0.00849  0.01862  0.00228  0.00190  0.00507
   O11	 0.01165  0.01381  0.01406 -0.00127  0.00025  0.00621
   O12	 0.00937  0.01938  0.00925  0.00671  0.00165  0.00545
   O13	 0.00785  0.01722  0.00849  0.00431  0.00101  0.00507
   O14	 0.00823  0.01305  0.01722  0.00101  0.00025  0.01026
   O15	 0.00988  0.01469  0.00785  0.00595  0.00025  0.00304
